Version 4
SHEET 1 880 680
WIRE 224 64 224 -32
WIRE 160 112 80 112
WIRE 80 192 80 112
WIRE 80 192 -96 192
WIRE 224 192 224 160
WIRE 416 192 224 192
WIRE 224 224 224 192
WIRE 80 272 80 192
WIRE 160 272 80 272
WIRE -96 288 -96 192
WIRE -512 304 -512 -32
WIRE -512 448 -512 384
WIRE -96 448 -96 368
WIRE 224 448 224 320
FLAG 416 192 out
FLAG 224 -32 3V3
FLAG 224 448 0
FLAG -96 448 0
FLAG -512 448 0
FLAG -512 -32 3V3
DATAFLAG -512 416 ""
SYMBOL pnp 160 160 M180
SYMATTR InstName Q1
SYMBOL npn 160 224 R0
SYMATTR InstName Q2
SYMBOL voltage -96 272 R0
WINDOW 123 0 0 Left 0
WINDOW 39 0 0 Left 0
SYMATTR InstName V1
SYMATTR Value PULSE(0 3.3 0 1p 1p 1u 2u)
SYMBOL voltage -512 288 R0
WINDOW 123 0 0 Left 0
WINDOW 39 0 0 Left 0
SYMATTR InstName V2
SYMATTR Value 3V3
TEXT -130 472 Left 2 !.tran 10u
TEXT -296 8 Left 2 ;PNP and NPN have to be swapped
